tests/readers/opendss/Loads/test_load_p_and_q.dss
clear

New circuit.test_load_p_and_q basekV=4.16 phases=3

New Load.load1 phases=3 bus1=b1 conn=wye kV=4.16 kW=5400 Kvar=4285 model=1
New Load.load2 phases=3 bus1=b2 conn=wye kV=4.16 kW=3466 pf=0.9 model=1
New Load.load3 phases=2 bus1=b3.1.3 conn=wye kV=4.16 kW=1600 Kvar=980 model=1
New Load.load4 phases=2 bus1=b2.1.2 conn=wye kV=4.16 kW=1555 pf=0.95 model=1
New Load.load5 phases=1 bus1=b3.3 conn=wye kV=4.16 kW=650 Kvar=500.5 model=1
New Load.load6 phases=1 bus1=b2.1 conn=wye kV=4.16 kW=623.21 pf=0.85 model=1

Set Voltagebases=[4.16]
Calcvoltagebases
Solve
